Version 4
SHEET 1 2012 900
WIRE 96 -256 48 -256
WIRE 128 -256 96 -256
WIRE 336 -256 208 -256
WIRE 448 -256 400 -256
WIRE 448 -240 448 -256
WIRE 48 -192 48 -256
WIRE 336 -192 320 -192
WIRE 416 -192 400 -192
WIRE 320 -128 320 -192
WIRE 320 -128 288 -128
WIRE 416 -128 416 -192
WIRE 432 -128 416 -128
WIRE 560 -128 512 -128
WIRE 592 -128 560 -128
WIRE 48 -80 48 -112
WIRE 144 112 64 112
WIRE 352 112 224 112
WIRE 464 112 416 112
WIRE 464 128 464 112
WIRE 64 176 64 112
WIRE 352 176 336 176
WIRE 432 176 416 176
WIRE 336 240 336 176
WIRE 336 240 304 240
WIRE 432 240 432 176
WIRE 448 240 432 240
WIRE 576 240 528 240
WIRE 608 240 576 240
WIRE 64 288 64 256
WIRE 176 496 96 496
WIRE 384 496 256 496
WIRE 496 496 448 496
WIRE 496 512 496 496
WIRE 96 560 96 496
WIRE 384 560 368 560
WIRE 464 560 448 560
WIRE 368 624 368 560
WIRE 368 624 336 624
WIRE 464 624 464 560
WIRE 480 624 464 624
WIRE 608 624 560 624
WIRE 640 624 608 624
WIRE 96 672 96 640
FLAG 464 128 0
FLAG 64 288 0
FLAG 576 240 Vzl2
FLAG 448 -240 0
FLAG 48 -80 0
FLAG 560 -128 Vzl1
FLAG 96 -256 Vin
FLAG 496 512 0
FLAG 96 672 0
FLAG 608 624 Vzl3
SYMBOL PiezoElement 384 144 R0
WINDOW 0 1 63 Center 0
WINDOW 39 12 -100 Center 0
SYMATTR InstName X1
SYMATTR SpiceLine d={d_PZT4} V={V_PZT4} Q={Q_PZT4}  eS={eS_PZT4}  e33={e33_PZT4}
SYMATTR Value L={Len} S={A}
SYMBOL SubstInf 256 240 M0
WINDOW 0 -2 -59 Center 0
SYMATTR InstName X2
SYMATTR Value2 d=d_Cork V=V_Cork
SYMATTR Value S={A}
SYMBOL res 240 96 R90
WINDOW 0 -5 60 VBottom 0
WINDOW 3 37 63 VTop 0
SYMATTR InstName R1
SYMATTR Value 0.1
SYMBOL voltage 64 160 R0
WINDOW 123 13 9 Left 2
WINDOW 39 0 0 Left 0
WINDOW 0 -59 11 Left 2
WINDOW 3 -182 -100 Left 2
SYMATTR Value2 AC 100
SYMATTR InstName V2
SYMATTR Value ""
SYMBOL SubstInf 656 240 M180
WINDOW 0 -2 -59 Center 0
SYMATTR InstName X3
SYMATTR Value2 d=1K V=1500
SYMATTR Value S={A}
SYMBOL SubstFin 496 240 R0
SYMATTR Value L= L_PETG S={A}
SYMATTR Value2 d={d_PETG} V={V_PETG}
SYMATTR SpiceLine Nv=Nv_PETG F={Freq0}
SYMATTR InstName X4
SYMBOL PiezoElement 368 -224 R0
WINDOW 0 1 63 Center 0
WINDOW 39 12 -100 Center 0
SYMATTR InstName X5
SYMATTR SpiceLine d={d_PZT4} V={V_PZT4} Q={Q_PZT4}  eS={eS_PZT4}  e33={e33_PZT4}
SYMATTR Value L={Len} S={A}
SYMBOL SubstInf 240 -128 M0
WINDOW 0 -2 -59 Center 0
SYMATTR InstName X6
SYMATTR Value2 d=1 V=1
SYMATTR Value S={A}
SYMBOL res 224 -272 R90
WINDOW 0 -5 60 VBottom 0
WINDOW 3 37 63 VTop 0
SYMATTR InstName R3
SYMATTR Value 0.1
SYMBOL voltage 48 -208 R0
WINDOW 123 13 9 Left 2
WINDOW 39 0 0 Left 0
WINDOW 0 -59 11 Left 2
WINDOW 3 -182 -100 Left 2
SYMATTR Value2 AC 100
SYMATTR InstName V1
SYMATTR Value ""
SYMBOL SubstInf 640 -128 M180
WINDOW 0 -2 -59 Center 0
SYMATTR InstName X7
SYMATTR Value2 d=1K V=1500
SYMATTR Value S={A}
SYMBOL SubstFin 480 -128 R0
SYMATTR Value L= L_PETG S={A}
SYMATTR Value2 d={d_PETG} V={V_PETG}
SYMATTR SpiceLine Nv=Nv_PETG F={Freq0}
SYMATTR InstName X8
SYMBOL PiezoElement 416 528 R0
WINDOW 0 1 63 Center 0
WINDOW 39 12 -100 Center 0
SYMATTR InstName X9
SYMATTR SpiceLine d={d_PZT4} V={V_PZT4} Q={Q_PZT4}  eS={eS_PZT4}  e33={e33_PZT4}
SYMATTR Value L={Len} S={A}
SYMBOL SubstInf 288 624 M0
WINDOW 0 -2 -59 Center 0
SYMATTR InstName X10
SYMATTR Value2 d=d_EPOXI V=V_EPOXI
SYMATTR Value S={A}
SYMBOL res 272 480 R90
WINDOW 0 -5 60 VBottom 0
WINDOW 3 37 63 VTop 0
SYMATTR InstName R4
SYMATTR Value 0.1
SYMBOL voltage 96 544 R0
WINDOW 123 13 9 Left 2
WINDOW 39 0 0 Left 0
WINDOW 0 -59 11 Left 2
WINDOW 3 -182 -100 Left 2
SYMATTR Value2 AC 100
SYMATTR InstName V3
SYMATTR Value ""
SYMBOL SubstInf 688 624 M180
WINDOW 0 -2 -59 Center 0
SYMATTR InstName X11
SYMATTR Value2 d=1K V=1500
SYMATTR Value S={A}
SYMBOL SubstFin 528 624 R0
SYMATTR Value L= L_PETG S={A}
SYMATTR Value2 d={d_PETG} V={V_PETG}
SYMATTR SpiceLine Nv=Nv_PETG F={Freq0}
SYMATTR InstName X12
TEXT 240 160 Left 0 ;Zback
TEXT 304 344 Left 2 !.ac dec 200 200e3 600e3
TEXT 424 88 Left 0 ;PZT-4
TEXT 768 32 Left 2 !.param Len=0.004 A=3.1416*D*D/4 D=0.020
TEXT 480 176 Left 0 ;PETG Plastico
TEXT 880 200 Left 0 !* Water\n.param d_water=1000; (Kg/m3)\n.param V_water=1500; (m/s)\n.param Nv_water=1e-3; Viscosity(Pas)
TEXT 880 256 Left 0 !* PETG\n.param d_PETG=1200; (Kg/m3)\n.param V_PETG=1700 ; (m/s)\n.param L_PETG={1/Freq0*V_PETG/4}\n.param Nv_PETG=5e-3
TEXT 1144 208 Left 0 !* PZT-4\n.param d_PZT4=7700 ; (Kg/m3)\n.param Q_PZT4=15\n;.param V_PZT4=sqrt(C33_PZT4/d_PZT4) ; (m/s)\n;.param V_PZT4=Freq0*2*Len\n.param V_PZT4=4350 ;(m/s)\n.param eS_PZT4=9.62e-9 ; (C2/Nm2)\n.param e33_PZT4=13.1  ; (C/m2)\n.param C33_PZT4=15.9e10 ;N/m^2
TEXT 1144 328 Left 0 !* PZT-5A\n.param d_PZT5=7750; (Kg/m3)\n.param Q_PZT5=75\n.param V_PZT5=4350; (m/s)\n.param eS_PZT5=7.35e-9; (C2/Nm2)\n.param e33_PZT5=15.9; (C/m2)
TEXT 776 80 Left 2 !.param Freq0=500e3
TEXT 880 328 Left 0 !* Epoxi\n.param d_EPOXI=1200 ; (Kg/m3)\n.param V_EPOXI=2000; (m/s)\n.param Nv_EPOXI=5e-3
TEXT 640 168 Left 0 ;ZL
TEXT 224 -208 Left 0 ;Zback
TEXT 408 -280 Left 0 ;PZT-4
TEXT 464 -192 Left 0 ;PETG Plastico
TEXT 624 -200 Left 0 ;ZL
TEXT 272 544 Left 0 ;Zback
TEXT 456 472 Left 0 ;PZT-4
TEXT 512 560 Left 0 ;PETG Plastico
TEXT 672 552 Left 0 ;ZL
TEXT 880 392 Left 0 !* Cork\n.param d_Cork=600 ; (Kg/m3)\n.param V_Cork=900 ; (m/s)\n.param Nv_Cork=10e-3
RECTANGLE Normal 848 320 160 144 2
RECTANGLE Normal 832 -48 144 -224 2
RECTANGLE Normal 880 704 192 528 2
